[General]
network = flora.simulations.walkerdelta.WalkerDelta
seed-0-mt=532569
sim-time-limit = 20000s

###########################
# General
###########################
rng-class = "cMersenneTwister"
**.ipv4Delayer.config = xmldoc("cloudDelays.xml")

#############################
# VISUALIZER
#############################
*.visualizer.*.radioVisualizer.displayAntennaLobes = true
*.visualizer.*.dataLinkVisualizer.displayLinks = true
*.visualizer.*.mobilityVisualizer.displayMovementTrails = true
*.visualizer.*.mobilityVisualizer.movementTrailLineWidth = 1
*.visualizer.*.mobilityVisualizer.trailLength = 10
#*.visualizer.*.mobilityVisualizer.displayVelocities = true

#############################
# GROUNDSTATIONS
#############################
*.groundStation[0].mobility.latitude = -33.4944
*.groundStation[0].mobility.longitude = -70.7412
*.groundStation[0].cityName = "Santiago"
*.groundStation[0].groundStationId = 0

*.groundStation[1].mobility.latitude = -33.865143
*.groundStation[1].mobility.longitude = 151.2099
*.groundStation[1].cityName = "Sydney"
*.groundStation[1].groundStationId = 1

*.groundStation[2].mobility.latitude = 35.6529
*.groundStation[2].mobility.longitude = 139.8395
*.groundStation[2].cityName = "Tokyo"
*.groundStation[2].groundStationId = 2

*.groundStation[3].mobility.latitude = 49.233334
*.groundStation[3].mobility.longitude = 7.0
*.groundStation[3].cityName = "Saarbrücken"
*.groundStation[3].groundStationId = 3

*.groundStation[4].mobility.latitude = 40.7306
*.groundStation[4].mobility.longitude = -73.935
*.groundStation[4].cityName = "New York"
*.groundStation[4].groundStationId = 4

*.groundStation[5].mobility.latitude = -33.9189
*.groundStation[5].mobility.longitude = 18.4233
*.groundStation[5].cityName = "Capetown"
*.groundStation[5].groundStationId = 5

*.groundStation[6].mobility.latitude = 47.6080
*.groundStation[6].mobility.longitude = -122.335
*.groundStation[6].cityName = "Seattle"
*.groundStation[6].groundStationId = 6


#############################
# SATELLITES
#############################

# Mobility
*.loRaGW[*].mobility.faceForward = false
*.loRaGW[*].mobility.updateInterval = 999999s # disable self-message update mechanism, so we can use FasterSatMobility
# Norad
*.loRaGW[*].NoradModule.satIndex = -1
*.loRaGW[*].NoradModule.satName = "-"

# routing config
*.loRaGW[*].packetHandler.maxHops = 50

# queue size
*.loRaGW[*].queue.packetCapacity = 10
# processing delay
*.loRaGW[*].queueConsumer.collectionInterval = uniform(500us, 1ms)

#############################
# TOPOLOGYCONTROL
#############################
*.topologyControl.walkerType = "DELTA"
*.topologyControl.updateInterval = 0.5s
*.topologyControl.minimumElevation = 35

#############################
# CONSTELLATION CREATOR
#############################
*.constellationCreator.planeCount = 24
*.constellationCreator.raanSpread = 360
*.constellationCreator.inclination = 53
*.constellationCreator.altitude = 750

#############################
# FASTERSATMOBILITY
#############################
*.fasterSatMobility.updateInterval = 0.5s