[General]
network = flora.simulations.FLoRaSatNetwork

sim-time-limit = 1000s
simtime-resolution = -11
**.vector-recording = true


###########################
# General
###########################
rng-class = "cMersenneTwister"
**.maxTransmissionDuration = 4s
FLoRaSatNetwork.**.radio.separateTransmissionParts = false
FLoRaSatNetwork.**.radio.separateReceptionParts = false
**.ipv4Delayer.config = xmldoc("cloudDelays.xml")
**.radio.radioMediumModule = "LoRaMedium"
*.LoRaMedium.pathLoss.typename = "FreeSpacePathLoss" # "LoRaLogNormalShadowing"
**.minInterferenceTime = 0s
**.displayAddresses = false

# Visualizer
*.visualizer.*.radioVisualizer.displayAntennaLobes = true
*.visualizer.*.dataLinkVisualizer.displayLinks = true
*.visualizer.*.mobilityVisualizer.displayMovementTrails = true
*.visualizer.*.mobilityVisualizer.trailLength = 300
*.visualizer.*.mobilityVisualizer.displayVelocities = true


###########################
# LoRa GW (satellites)
###########################
**.numberOfGateways = 16
**.loRaGW[*].**.initFromDisplayString = false

# Radio
*.loRaGW[*].LoRaGWNic.radio.antenna.gain = 12dB
*.loRaGW[*].LoRaGWNic.radio.antenna.maxGain = 12dB
*.loRaGW[*].LoRaGWNic.radio.antenna.minGain = 1dB
*.loRaGW[*].LoRaGWNic.radio.antenna.beamWidth = 120deg
*.loRaGW[*].LoRaGWNic.radio.antenna.mobility.offsetHeading = 120deg
**.LoRaGWNic.radio.iAmGateway = true

# MAC (LoRaWAN)
*.loRaGW[*].LoRaGWNic.mac.classUsed = "A"   # "A" or "B" 
*.loRaGW[*].LoRaGWNic.mac.beaconTimer = 128 # the period of beaconMessage sent from GW
*.loRaGW[*].LoRaGWNic.mac.pingNumber = 4    # power of 2

# Mobility
*.loRaGW[*]*.mobility.typename = "BonnMotionMobility"
*.loRaGW[*]*.mobility.faceForward = false 
*.loRaGW[*]*.mobility.offsetHeading = 60 deg
*.loRaGW[*]*.mobility.offsetElevation = 60 deg
*.loRaGW[*]*.mobility.offsetBank = 60 deg
*.loRaGW[*]*.mobility.traceFile = "llaorbit.movements"
*.loRaGW[*]*.mobility.nodeId = -1
*.loRaGW[*]*.mobility.is3D = true

# Application
*.loRaGW[*].numUdpApps = 1
**.loRaGW[*].packetForwarder.localPort = 2000
**.loRaGW[*].packetForwarder.destPort = 1000
**.loRaGW[*].islPacketForwarder.localPort = 2000
**.loRaGW[*].islPacketForwarder.destPort = 1000
**.loRaGW[*].packetForwarder.destAddresses = "networkServer"
**.loRaGW[*].packetForwarder.indexNumber = 0
# deviceID
*.loRaGW[0].islPacketForwarder.deviceID = 0
*.loRaGW[1].islPacketForwarder.deviceID = 1
*.loRaGW[2].islPacketForwarder.deviceID = 2
*.loRaGW[3].islPacketForwarder.deviceID = 3
*.loRaGW[4].islPacketForwarder.deviceID = 4
*.loRaGW[5].islPacketForwarder.deviceID = 5
*.loRaGW[6].islPacketForwarder.deviceID = 6
*.loRaGW[7].islPacketForwarder.deviceID = 7
*.loRaGW[8].islPacketForwarder.deviceID = 8
*.loRaGW[9].islPacketForwarder.deviceID = 9
*.loRaGW[10].islPacketForwarder.deviceID = 10
*.loRaGW[11].islPacketForwarder.deviceID = 11
*.loRaGW[12].islPacketForwarder.deviceID = 12
*.loRaGW[13].islPacketForwarder.deviceID = 13
*.loRaGW[14].islPacketForwarder.deviceID = 14
*.loRaGW[15].islPacketForwarder.deviceID = 15


###########################
# Network Server
###########################
**.networkServer.numApps = 1
**.networkServer.**.evaluateADRinServer = false
**.networkServer.**.WorkWithAck = true # this parameter can be deleted later on by just checking the msg type on UL
**.networkServer.app[0].typename = "NetworkServerApp"
**.networkServer.app[0].destAddresses = "loRaGW[0]"
**.networkServer.app[0].destPort = 2000
**.networkServer.app[0].localPort = 1000
**.networkServer.app[0].adrMethod = ${"avg"}


###########################
# LoRa Nodes (devices on ground)
###########################
**.numberOfNodes = 3
**.constraintAreaMaxX = 237600.0m
**.constraintAreaMaxY = 109000.0m
**.constraintAreaMaxZ = 2000000m

# Application
**.numberOfPacketsToSend = 0  #${numberOfPAckets = 200..5000 step 200} #100 #obviously 0 means infinite number of packets
**.timeToFirstPacket = 10s    #time to first packet can be set at any moment
**.timeToNextPacket = 180s    #time to next packet must follow the 1% duty cycle, you can find the limit time on SimpleLoRaApp
**.alohaChannelModel = false
**.usingAck = true            # work with an ACK DL or not

# MAC (LoRaWAN)
**.loRaNodes[*].**initialLoRaSF = 12       # SF from 9 to 12
**.loRaNodes[*].**initialLoRaTP = 12dBm
**.loRaNodes[*].**initialLoRaBW = 125 kHz
**.loRaNodes[*].**initialLoRaCR = 4
**.loRaNodes[*].**.initFromDisplayString = false
**.loRaNodes[*].**.evaluateADRinNode = true
*.loRaNodes[*].LoRaNic.mac.classUsed = "A"  

# Power
**.loRaNodes[*].LoRaNic.radio.energyConsumer.typename = "LoRaEnergyConsumer"
**.loRaNodes[*].**.energySourceModule = "IdealEpEnergyStorage"
**.loRaNodes[*].LoRaNic.radio.energyConsumer.configFile = xmldoc("energyConsumptionParameters.xml")

# Nodes location
**.loRaNodes[0].**.initialY = 14316.061395522824m
**.loRaNodes[0].**.initialX = 8900.66830688532m
**.loRaNodes[0].**.initialZ = 0.281949770500414m
**.loRaNodes[1].**.initialY = 13963.391607871907m
**.loRaNodes[1].**.initialX = 9308.74841913068m
**.loRaNodes[1].**.initialZ = 0.0999299554441697m
**.loRaNodes[2].**.initialY = 11735.495194965208m
**.loRaNodes[2].**.initialX = 9991.832290408456m
**.loRaNodes[2].**.initialZ = 0.354707882624322m
**.loRaNodes[3].**.initialY = 13323.1948149657m
**.loRaNodes[3].**.initialX = 8795.993691470128m
**.loRaNodes[3].**.initialZ = 1.36103981096877m
**.loRaNodes[4].**.initialY = 10721.841955199552m
**.loRaNodes[4].**.initialX = 8287.175815287335m
**.loRaNodes[4].**.initialZ = 0.20591000976908497m
**.loRaNodes[5].**.initialY = 10732.76056915617m
**.loRaNodes[5].**.initialX = 9807.168180751658m
**.loRaNodes[5].**.initialZ = 0.27419765605658397m
**.loRaNodes[6].**.initialY = 11376.896900202191m
**.loRaNodes[6].**.initialX = 9636.233983019889m
**.loRaNodes[6].**.initialZ = 0.35614075019134706m
**.loRaNodes[7].**.initialY = 12208.93453196386m
**.loRaNodes[7].**.initialX = 9016.994563846727m
**.loRaNodes[7].**.initialZ = 3.1008425715673797m
**.loRaNodes[8].**.initialY = 12766.578650142415m
**.loRaNodes[8].**.initialX = 7700.81324245215m
**.loRaNodes[8].**.initialZ = 0.00761345710200087m
**.loRaNodes[9].**.initialY = 11854.410670755231m
**.loRaNodes[9].**.initialX = 8387.035656153334m
**.loRaNodes[9].**.initialZ = 0.0213999166423441m
**.loRaNodes[10].**.initialY = 14525.313860659393m
**.loRaNodes[10].**.initialX = 8818.754924328221m
**.loRaNodes[10].**.initialZ = 0.7619168102581559m
**.loRaNodes[11].**.initialY = 12061.926449936003m
**.loRaNodes[11].**.initialX = 8677.77300770311m
**.loRaNodes[11].**.initialZ = 3.8489767246983497m
**.loRaNodes[12].**.initialY = 11340.447869534708m
**.loRaNodes[12].**.initialX = 10238.06967328967m
**.loRaNodes[12].**.initialZ = 0.21884747117776399m
**.loRaNodes[13].**.initialY = 11616.221649743058m
**.loRaNodes[13].**.initialX = 10020.43092577215m
**.loRaNodes[13].**.initialZ = 0.257502655385123m
**.loRaNodes[14].**.initialY = 12332.960728725495m
**.loRaNodes[14].**.initialX = 7976.614137864893m
**.loRaNodes[14].**.initialZ = 0.009972304667184179m
**.loRaNodes[15].**.initialY = 13622.850361203038m
**.loRaNodes[15].**.initialX = 10371.85265016027m
**.loRaNodes[15].**.initialZ = -0.00282691175384317m
**.loRaNodes[16].**.initialY = 10806.965494235677m
**.loRaNodes[16].**.initialX = 9871.930205162476m
**.loRaNodes[16].**.initialZ = 0.288029821938137m
**.loRaNodes[17].**.initialY = 12028.524777752182m
**.loRaNodes[17].**.initialX = 9953.3170804345m
**.loRaNodes[17].**.initialZ = 0.746894680969604m
**.loRaNodes[18].**.initialY = 12044.259926955647m
**.loRaNodes[18].**.initialX = 9981.494869981m
**.loRaNodes[18].**.initialZ = 0.809905433778143m
**.loRaNodes[19].**.initialY = 11320.114393121828m
**.loRaNodes[19].**.initialX = 9962.324738291554m
**.loRaNodes[19].**.initialZ = 0.29222185824700503m
**.loRaNodes[20].**.initialY = 14004.298276698586m
**.loRaNodes[20].**.initialX = 8096.481948763098m
**.loRaNodes[20].**.initialZ = 0.0111893439142858m
**.loRaNodes[21].**.initialY = 14598.035101742531m
**.loRaNodes[21].**.initialX = 8578.323403789673m
**.loRaNodes[21].**.initialZ = 1.20076916564943m
**.loRaNodes[22].**.initialY = 11347.613995270716m
**.loRaNodes[22].**.initialX = 9342.454521970109m
**.loRaNodes[22].**.initialZ = 0.24368960007537m
**.loRaNodes[23].**.initialY = 14061.433076992156m
**.loRaNodes[23].**.initialX = 8018.074546189313m
**.loRaNodes[23].**.initialZ = 0.00958525464734884m
**.loRaNodes[24].**.initialY = 12116.602518562111m
**.loRaNodes[24].**.initialX = 9430.612036827819m
**.loRaNodes[24].**.initialZ = 0.23487577198746104m
**.loRaNodes[25].**.initialY = 13859.225909782775m
**.loRaNodes[25].**.initialX = 10192.96242309658m
**.loRaNodes[25].**.initialZ = 0.000504884020429037m
**.loRaNodes[26].**.initialY = 12210.659772019504m
**.loRaNodes[26].**.initialX = 10496.875219143923m
**.loRaNodes[26].**.initialZ = 0.9712855645666041m
**.loRaNodes[27].**.initialY = 11499.620490363825m
**.loRaNodes[27].**.initialX = 10114.611281115223m
**.loRaNodes[27].**.initialZ = 0.210846034984215m
**.loRaNodes[28].**.initialY = 13629.333464219517m
**.loRaNodes[28].**.initialX = 8402.825830458536m
**.loRaNodes[28].**.initialZ = 0.0106370984864902m
**.loRaNodes[29].**.initialY = 13322.508184670056m
**.loRaNodes[29].**.initialX = 10112.695815859212m
**.loRaNodes[29].**.initialZ = 0.0416561803760366m
**.loRaNodes[30].**.initialY = 10742.765056557277m
**.loRaNodes[30].**.initialX = 9066.85340985696m
**.loRaNodes[30].**.initialZ = 0.0684125470798853m
**.loRaNodes[31].**.initialY = 11925.189265446385m
**.loRaNodes[31].**.initialX = 9327.754191644073m
**.loRaNodes[31].**.initialZ = 0.28609286381312m
**.loRaNodes[32].**.initialY = 14595.939986395933m
**.loRaNodes[32].**.initialX = 8736.289676318416m
**.loRaNodes[32].**.initialZ = 0.9294193158650359m
**.loRaNodes[33].**.initialY = 12824.080655297763m
**.loRaNodes[33].**.initialX = 9754.650773082989m
**.loRaNodes[33].**.initialZ = 0.23669443742604301m
**.loRaNodes[34].**.initialY = 11674.849709643977m
**.loRaNodes[34].**.initialX = 7838.984181829785m
**.loRaNodes[34].**.initialZ = 0.00659116681248224m
**.loRaNodes[35].**.initialY = 14122.397135219002m
**.loRaNodes[35].**.initialX = 8714.77616599466m
**.loRaNodes[35].**.initialZ = 0.776830062171098m
**.loRaNodes[36].**.initialY = 11981.05489371139m
**.loRaNodes[36].**.initialX = 9387.349103614684m
**.loRaNodes[36].**.initialZ = 0.489139340200713m
**.loRaNodes[37].**.initialY = 12477.828826494437m
**.loRaNodes[37].**.initialX = 9273.874184156768m
**.loRaNodes[37].**.initialZ = 0.24527453470905802m
**.loRaNodes[38].**.initialY = 14063.882353258872m
**.loRaNodes[38].**.initialX = 8732.058428215169m
**.loRaNodes[38].**.initialZ = 1.12368847857144m
**.loRaNodes[39].**.initialY = 12024.492397483102m
**.loRaNodes[39].**.initialX = 7914.276232205378m
**.loRaNodes[39].**.initialZ = 0.00972301127484269m
**.loRaNodes[40].**.initialY = 11529.383291509397m
**.loRaNodes[40].**.initialX = 8708.680923405622m
**.loRaNodes[40].**.initialZ = 1.3928093315134702m
**.loRaNodes[41].**.initialY = 12702.909418688223m
**.loRaNodes[41].**.initialX = 9425.366944891306m
**.loRaNodes[41].**.initialZ = 0.144281079527602m
**.loRaNodes[42].**.initialY = 13996.9484036599m
**.loRaNodes[42].**.initialX = 8059.704019096229m
**.loRaNodes[42].**.initialZ = 0.0105729494478742m
**.loRaNodes[43].**.initialY = 13522.83003264136m
**.loRaNodes[43].**.initialX = 8265.867927822923m
**.loRaNodes[43].**.initialZ = 0.0152127862062337m
**.loRaNodes[44].**.initialY = 12264.484172242614m
**.loRaNodes[44].**.initialX = 10053.164186510188m
**.loRaNodes[44].**.initialZ = 0.33495858780036797m
**.loRaNodes[45].**.initialY = 11956.74271645575m
**.loRaNodes[45].**.initialX = 7715.986048194784m
**.loRaNodes[45].**.initialZ = 0.0040961848880068895m
**.loRaNodes[46].**.initialY = 12971.508021647072m
**.loRaNodes[46].**.initialX = 10198.083588546733m
**.loRaNodes[46].**.initialZ = 0.604269899686221m
**.loRaNodes[47].**.initialY = 11812.725744253052m
**.loRaNodes[47].**.initialX = 8024.631861353751m
**.loRaNodes[47].**.initialZ = 0.013801809144976997m
**.loRaNodes[48].**.initialY = 11289.587966349818m
**.loRaNodes[48].**.initialX = 8299.571115768884m
**.loRaNodes[48].**.initialZ = 1.40547607781054m
**.loRaNodes[49].**.initialY = 12258.688041232723m
**.loRaNodes[49].**.initialX = 7821.00664243956m
**.loRaNodes[49].**.initialZ = 0.007764371267330059m
**.loRaNodes[50].**.initialY = 13948.633157812312m
**.loRaNodes[50].**.initialX = 8049.748156495022m
**.loRaNodes[50].**.initialZ = 0.0105508449643437m
**.loRaNodes[51].**.initialY = 12748.739263534213m
**.loRaNodes[51].**.initialX = 10516.114627873598m
**.loRaNodes[51].**.initialZ = -0.00318030261267595m
**.loRaNodes[52].**.initialY = 13681.883465742258m
**.loRaNodes[52].**.initialX = 9880.016232256214m
**.loRaNodes[52].**.initialZ = 0.0318491944891124m
**.loRaNodes[53].**.initialY = 12448.645341283547m
**.loRaNodes[53].**.initialX = 8241.479906753206m
**.loRaNodes[53].**.initialZ = 0.0157277938976868m
**.loRaNodes[54].**.initialY = 13395.47769719247m
**.loRaNodes[54].**.initialX = 9356.058110701111m
**.loRaNodes[54].**.initialZ = 0.0737486834862153m
**.loRaNodes[55].**.initialY = 11194.837712568376m
**.loRaNodes[55].**.initialX = 8213.026826725847m
**.loRaNodes[55].**.initialZ = 2.3852943421203796m
**.loRaNodes[56].**.initialY = 12308.695220043453m
**.loRaNodes[56].**.initialX = 8718.638138818138m
**.loRaNodes[56].**.initialZ = 4.16144191880088m
**.loRaNodes[57].**.initialY = 12731.98262240004m
**.loRaNodes[57].**.initialX = 8580.881783699142m
**.loRaNodes[57].**.initialZ = 0.0268526510624029m
**.loRaNodes[58].**.initialY = 11949.21361268121m
**.loRaNodes[58].**.initialX = 7571.411163009491m
**.loRaNodes[58].**.initialZ = 0.00115710751860441m
**.loRaNodes[59].**.initialY = 12941.502628559776m
**.loRaNodes[59].**.initialX = 9758.965709343536m
**.loRaNodes[59].**.initialZ = 0.291489304089794m
**.loRaNodes[60].**.initialY = 12981.940585120436m
**.loRaNodes[60].**.initialX = 8787.83606654718m
**.loRaNodes[60].**.initialZ = 4.14690920551135m
**.loRaNodes[61].**.initialY = 14566.09324628283m
**.loRaNodes[61].**.initialX = 9080.894372614903m
**.loRaNodes[61].**.initialZ = 0.0134826740892894m
**.loRaNodes[62].**.initialY = 12375.730873632863m
**.loRaNodes[62].**.initialX = 8688.46259303352m
**.loRaNodes[62].**.initialZ = 1.12562125018775m
**.loRaNodes[63].**.initialY = 11731.98120940718m
**.loRaNodes[63].**.initialX = 7604.69766241477m
**.loRaNodes[63].**.initialZ = 6.2107180560487e-06m
**.loRaNodes[64].**.initialY = 11976.897409557901m
**.loRaNodes[64].**.initialX = 10210.18970667266m
**.loRaNodes[64].**.initialZ = 0.588182631380962m
**.loRaNodes[65].**.initialY = 13578.068924112336m
**.loRaNodes[65].**.initialX = 7942.548616556801m
**.loRaNodes[65].**.initialZ = 0.0087210555210313m
**.loRaNodes[66].**.initialY = 12006.648167172892m
**.loRaNodes[66].**.initialX = 7565.09088265325m
**.loRaNodes[66].**.initialZ = 0.00142777629896942m
**.loRaNodes[67].**.initialY = 14168.385192186497m
**.loRaNodes[67].**.initialX = 8047.634494547385m
**.loRaNodes[67].**.initialZ = 0.00961417008454322m
**.loRaNodes[68].**.initialY = 12374.164361295958m
**.loRaNodes[68].**.initialX = 8780.632217962817m
**.loRaNodes[68].**.initialZ = 4.47840566846263m
**.loRaNodes[69].**.initialY = 14369.224315612264m
**.loRaNodes[69].**.initialX = 9264.819468485095m
**.loRaNodes[69].**.initialZ = 0.0135014221009424m
**.loRaNodes[70].**.initialY = 12891.981330313582m
**.loRaNodes[70].**.initialX = 8140.729202945918m
**.loRaNodes[70].**.initialZ = 0.0140438064409651m
**.loRaNodes[71].**.initialY = 11047.809222005339m
**.loRaNodes[71].**.initialX = 9045.521346248288m
**.loRaNodes[71].**.initialZ = 0.111589817832587m
**.loRaNodes[72].**.initialY = 11193.959691109034m
**.loRaNodes[72].**.initialX = 8233.395184055677m
**.loRaNodes[72].**.initialZ = 0.952830709602898m
**.loRaNodes[73].**.initialY = 12136.548810739196m
**.loRaNodes[73].**.initialX = 7707.055161451402m
**.loRaNodes[73].**.initialZ = 0.00506898095220937m
**.loRaNodes[74].**.initialY = 12084.526416859977m
**.loRaNodes[74].**.initialX = 8402.461896144128m
**.loRaNodes[74].**.initialZ = 0.0196499823129546m
**.loRaNodes[75].**.initialY = 12819.103546309965m
**.loRaNodes[75].**.initialX = 7579.287331604783m
**.loRaNodes[75].**.initialZ = 0.00571487412464986m
**.loRaNodes[76].**.initialY = 13010.205717516437m
**.loRaNodes[76].**.initialX = 10235.900163375667m
**.loRaNodes[76].**.initialZ = 0.47342987484607896m
**.loRaNodes[77].**.initialY = 12226.8901872725m
**.loRaNodes[77].**.initialX = 10336.78332699325m
**.loRaNodes[77].**.initialZ = 0.496396032927758m
**.loRaNodes[78].**.initialY = 14066.016077824112m
**.loRaNodes[78].**.initialX = 9819.759861066805m
**.loRaNodes[78].**.initialZ = 0.0099970863978625m
**.loRaNodes[79].**.initialY = 12257.665558138624m
**.loRaNodes[79].**.initialX = 8327.687521512395m
**.loRaNodes[79].**.initialZ = 0.0182507981713809m
**.loRaNodes[80].**.initialY = 13869.613687392246m
**.loRaNodes[80].**.initialX = 9345.542402389752m
**.loRaNodes[80].**.initialZ = 0.0836392814023488m
**.loRaNodes[81].**.initialY = 11645.12530708203m
**.loRaNodes[81].**.initialX = 9054.53681701391m
**.loRaNodes[81].**.initialZ = 0.190201026993248m
**.loRaNodes[82].**.initialY = 10677.882827033502m
**.loRaNodes[82].**.initialX = 8761.589051665831m
**.loRaNodes[82].**.initialZ = 0.171621388130396m
**.loRaNodes[83].**.initialY = 12657.993938108044m
**.loRaNodes[83].**.initialX = 10568.056848895481m
**.loRaNodes[83].**.initialZ = -0.00362765718465711m
**.loRaNodes[84].**.initialY = 14523.39444439011m
**.loRaNodes[84].**.initialX = 9166.644751035356m
**.loRaNodes[84].**.initialZ = 0.067634395080051m
**.loRaNodes[85].**.initialY = 11289.383039272992m
**.loRaNodes[85].**.initialX = 9994.025472394183m
**.loRaNodes[85].**.initialZ = 0.30986445170259697m
**.loRaNodes[86].**.initialY = 12402.02997756155m
**.loRaNodes[86].**.initialX = 8673.65800879291m
**.loRaNodes[86].**.initialZ = 0.9787486364350321m
**.loRaNodes[87].**.initialY = 14004.4269292902m
**.loRaNodes[87].**.initialX = 10141.329038514445m
**.loRaNodes[87].**.initialZ = 0.0004919704368559509m
**.loRaNodes[88].**.initialY = 11847.76339814037m
**.loRaNodes[88].**.initialX = 8563.707122795231m
**.loRaNodes[88].**.initialZ = 2.2503367890087m
**.loRaNodes[89].**.initialY = 11453.60641273153m
**.loRaNodes[89].**.initialX = 10324.709348091716m
**.loRaNodes[89].**.initialZ = 0.538304053985686m
**.loRaNodes[90].**.initialY = 12282.816746469107m
**.loRaNodes[90].**.initialX = 9320.882088906405m
**.loRaNodes[90].**.initialZ = 0.258974400153127m
**.loRaNodes[91].**.initialY = 12036.033963906315m
**.loRaNodes[91].**.initialX = 7857.740751229295m
**.loRaNodes[91].**.initialZ = 0.008029015146851679m
**.loRaNodes[92].**.initialY = 11246.037393945133m
**.loRaNodes[92].**.initialX = 9049.134302094408m
**.loRaNodes[92].**.initialZ = 0.191657705818204m
**.loRaNodes[93].**.initialY = 12691.588523808008m
**.loRaNodes[93].**.initialX = 8885.042942776498m
**.loRaNodes[93].**.initialZ = 4.98149432655746m
**.loRaNodes[94].**.initialY = 12528.94515066997m
**.loRaNodes[94].**.initialX = 8571.297718721773m
**.loRaNodes[94].**.initialZ = 0.0189591454065691m
**.loRaNodes[95].**.initialY = 13928.327461608062m
**.loRaNodes[95].**.initialX = 7993.419973166842m
**.loRaNodes[95].**.initialZ = 0.00951157624207667m
**.loRaNodes[96].**.initialY = 10886.154055582481m
**.loRaNodes[96].**.initialX = 8656.54604239774m
**.loRaNodes[96].**.initialZ = 0.22569644324796498m
**.loRaNodes[97].**.initialY = 12073.968205173911m
**.loRaNodes[97].**.initialX = 8846.860204411527m
**.loRaNodes[97].**.initialZ = 3.7379136343184m
**.loRaNodes[98].**.initialY = 13942.018140103715m
**.loRaNodes[98].**.initialX = 9604.472162214983m
**.loRaNodes[98].**.initialZ = 0.0276837861646586m
**.loRaNodes[99].**.initialY = 13270.711922421038m
**.loRaNodes[99].**.initialX = 8376.07130246047m
**.loRaNodes[99].**.initialZ = 0.0155319103407304m
**.loRaNodes[100].**.initialY = 14624.665132173857m
**.loRaNodes[100].**.initialX = 9194.20222688497m
**.loRaNodes[100].**.initialZ = 0.0124874791593273m
**.loRaNodes[101].**.initialY = 12995.080369566309m
**.loRaNodes[101].**.initialX = 7561.7978852882525m
**.loRaNodes[101].**.initialZ = 0.00557081925564939m
**.loRaNodes[102].**.initialY = 12480.864545686187m
**.loRaNodes[102].**.initialX = 8423.218927866033m
**.loRaNodes[102].**.initialZ = 0.0197497017247454m
**.loRaNodes[103].**.initialY = 11358.037703036964m
**.loRaNodes[103].**.initialX = 8036.7308967919535m
**.loRaNodes[103].**.initialZ = 0.0137597882217397m
**.loRaNodes[104].**.initialY = 13080.191868182364m
**.loRaNodes[104].**.initialX = 9856.64641724755m
**.loRaNodes[104].**.initialZ = 0.339852826887825m
**.loRaNodes[105].**.initialY = 12133.741726261569m
**.loRaNodes[105].**.initialX = 8792.866638592m
**.loRaNodes[105].**.initialZ = 3.70799662714821m
**.loRaNodes[106].**.initialY = 10978.739559325393m
**.loRaNodes[106].**.initialX = 9382.388249726688m
**.loRaNodes[106].**.initialZ = 0.13870278182567003m
**.loRaNodes[107].**.initialY = 12491.339513396091m
**.loRaNodes[107].**.initialX = 10394.788784936845m
**.loRaNodes[107].**.initialZ = 0.5775226831774251m
**.loRaNodes[108].**.initialY = 13726.73428300739m
**.loRaNodes[108].**.initialX = 10186.484138333413m
**.loRaNodes[108].**.initialZ = 0.00425485509312945m
**.loRaNodes[109].**.initialY = 13083.763599012673m
**.loRaNodes[109].**.initialX = 7805.369369352252m
**.loRaNodes[109].**.initialZ = 0.007315131812583571m
**.loRaNodes[110].**.initialY = 13428.811913163769m
**.loRaNodes[110].**.initialX = 10417.634480548168m
**.loRaNodes[110].**.initialZ = -0.00473078289602077m
**.loRaNodes[111].**.initialY = 11751.651185639304m
**.loRaNodes[111].**.initialX = 9428.555426617093m
**.loRaNodes[111].**.initialZ = 0.250297403839558m
**.loRaNodes[112].**.initialY = 10784.828912372666m
**.loRaNodes[112].**.initialX = 9320.52491319386m
**.loRaNodes[112].**.initialZ = 0.0993195091002686m
**.loRaNodes[113].**.initialY = 11208.01222953687m
**.loRaNodes[113].**.initialX = 9768.432850882275m
**.loRaNodes[113].**.initialZ = 0.270982979846621m
**.loRaNodes[114].**.initialY = 10685.03260319286m
**.loRaNodes[114].**.initialX = 9435.82436940322m
**.loRaNodes[114].**.initialZ = 0.0807232992025334m
**.loRaNodes[115].**.initialY = 12411.579848444204m
**.loRaNodes[115].**.initialX = 7621.382574914869m
**.loRaNodes[115].**.initialZ = 0.005639732597645939m
**.loRaNodes[116].**.initialY = 12490.561892809012m
**.loRaNodes[116].**.initialX = 10225.189025100735m
**.loRaNodes[116].**.initialZ = 0.537654385179781m
**.loRaNodes[117].**.initialY = 13501.24304926828m
**.loRaNodes[117].**.initialX = 8770.160818683138m
**.loRaNodes[117].**.initialZ = 0.599474447900021m
**.loRaNodes[118].**.initialY = 11635.736472498646m
**.loRaNodes[118].**.initialX = 8576.70776492023m
**.loRaNodes[118].**.initialZ = 3.96439327597765m
**.loRaNodes[119].**.initialY = 14128.325108433535m
**.loRaNodes[119].**.initialX = 8553.081967517106m
**.loRaNodes[119].**.initialZ = 2.3378262910439m
**.loRaNodes[120].**.initialY = 11808.342130894069m
**.loRaNodes[120].**.initialX = 9804.39098872759m
**.loRaNodes[120].**.initialZ = 0.531215303974677m
**.loRaNodes[121].**.initialY = 12385.493438208918m
**.loRaNodes[121].**.initialX = 8195.08502731051m
**.loRaNodes[121].**.initialZ = 0.0142042438472707m
**.loRaNodes[122].**.initialY = 10657.219844157336m
**.loRaNodes[122].**.initialX = 8910.767968449936m
**.loRaNodes[122].**.initialZ = 0.13247825739226102m
**.loRaNodes[123].**.initialY = 13226.617460145591m
**.loRaNodes[123].**.initialX = 8926.711136643558m
**.loRaNodes[123].**.initialZ = 0.364448907527837m
**.loRaNodes[124].**.initialY = 12179.297473244149m
**.loRaNodes[124].**.initialX = 8367.854873096585m
**.loRaNodes[124].**.initialZ = 0.0197363464837723m
**.loRaNodes[125].**.initialY = 12324.551979622132m
**.loRaNodes[125].**.initialX = 9423.34385885815m
**.loRaNodes[125].**.initialZ = 0.154078653765314m
**.loRaNodes[126].**.initialY = 14006.86005186367m
**.loRaNodes[126].**.initialX = 8229.068834561287m
**.loRaNodes[126].**.initialZ = 0.0112695900210855m
**.loRaNodes[127].**.initialY = 13911.95799326447m
**.loRaNodes[127].**.initialX = 8204.282081033009m
**.loRaNodes[127].**.initialZ = 0.012510314081988999m
**.loRaNodes[128].**.initialY = 11862.452466508055m
**.loRaNodes[128].**.initialX = 8286.322679530018m
**.loRaNodes[128].**.initialZ = 0.0121121660107107m
**.loRaNodes[129].**.initialY = 12005.42194539836m
**.loRaNodes[129].**.initialX = 9353.454577125754m
**.loRaNodes[129].**.initialZ = 0.33985966105443105m
**.loRaNodes[130].**.initialY = 13415.92832754911m
**.loRaNodes[130].**.initialX = 8773.52628125233m
**.loRaNodes[130].**.initialZ = 0.7048673607799519m
**.loRaNodes[131].**.initialY = 12707.625383406987m
**.loRaNodes[131].**.initialX = 9585.466785225079m
**.loRaNodes[131].**.initialZ = 0.10112018812387699m
**.loRaNodes[132].**.initialY = 12928.355925763757m
**.loRaNodes[132].**.initialX = 10114.918252325415m
**.loRaNodes[132].**.initialZ = 1.20971689903081m
**.loRaNodes[133].**.initialY = 12595.605058817788m
**.loRaNodes[133].**.initialX = 9905.972469292376m
**.loRaNodes[133].**.initialZ = 0.334012186363151m
**.loRaNodes[134].**.initialY = 11732.433742835654m
**.loRaNodes[134].**.initialX = 10349.3859133488m
**.loRaNodes[134].**.initialZ = 1.193780594735m
**.loRaNodes[135].**.initialY = 12245.809635143998m
**.loRaNodes[135].**.initialX = 8978.15016928367m
**.loRaNodes[135].**.initialZ = 2.97979213932868m
**.loRaNodes[136].**.initialY = 11166.898088063983m
**.loRaNodes[136].**.initialX = 9978.840301159562m
**.loRaNodes[136].**.initialZ = 0.28389880819382m
**.loRaNodes[137].**.initialY = 12173.630735029386m
**.loRaNodes[137].**.initialX = 8117.484642250823m
**.loRaNodes[137].**.initialZ = 0.0136307490976881m
**.loRaNodes[138].**.initialY = 12814.790816537827m
**.loRaNodes[138].**.initialX = 9186.277969061466m
**.loRaNodes[138].**.initialZ = 0.270765869763561m
**.loRaNodes[139].**.initialY = 13401.212156851654m
**.loRaNodes[139].**.initialX = 8264.151171717536m
**.loRaNodes[139].**.initialZ = 0.0149008547715581m
**.loRaNodes[140].**.initialY = 10373.099523954113m
**.loRaNodes[140].**.initialX = 9197.680160128495m
**.loRaNodes[140].**.initialZ = 0.0384766573543441m
**.loRaNodes[141].**.initialY = 10603.917839087138m
**.loRaNodes[141].**.initialX = 8372.038490956063m
**.loRaNodes[141].**.initialZ = 0.168148275073407m
**.loRaNodes[142].**.initialY = 14144.856327196128m
**.loRaNodes[142].**.initialX = 8011.390185200836m
**.loRaNodes[142].**.initialZ = 0.00907845600898888m
**.loRaNodes[143].**.initialY = 12148.191537665845m
**.loRaNodes[143].**.initialX = 8988.70899344176m
**.loRaNodes[143].**.initialZ = 3.6250518409358903m
**.loRaNodes[144].**.initialY = 13664.833126315658m
**.loRaNodes[144].**.initialX = 8208.816709558601m
**.loRaNodes[144].**.initialZ = 0.0126464337740715m
**.loRaNodes[145].**.initialY = 13388.58844734757m
**.loRaNodes[145].**.initialX = 9494.363286398246m
**.loRaNodes[145].**.initialZ = 0.0790012310412862m
**.loRaNodes[146].**.initialY = 14471.381913756484m
**.loRaNodes[146].**.initialX = 8854.509444736783m
**.loRaNodes[146].**.initialZ = 0.45690003080039704m
**.loRaNodes[147].**.initialY = 12316.67480178713m
**.loRaNodes[147].**.initialX = 8103.100920503523m
**.loRaNodes[147].**.initialZ = 0.0125369998106431m
**.loRaNodes[148].**.initialY = 12109.677457532156m
**.loRaNodes[148].**.initialX = 9036.44499254974m
**.loRaNodes[148].**.initialZ = 2.99744894103494m
**.loRaNodes[149].**.initialY = 13386.474650305581m
**.loRaNodes[149].**.initialX = 9521.9027237204m
**.loRaNodes[149].**.initialZ = 0.0889845797550427m
**.loRaNodes[150].**.initialY = 11409.416770168502m
**.loRaNodes[150].**.initialX = 7998.85486986246m
**.loRaNodes[150].**.initialZ = 0.00635244769633474m
**.loRaNodes[151].**.initialY = 10617.16340539981m
**.loRaNodes[151].**.initialX = 9163.590533891562m
**.loRaNodes[151].**.initialZ = 0.032786709087896m
**.loRaNodes[152].**.initialY = 11050.152343291176m
**.loRaNodes[152].**.initialX = 9987.065540074784m
**.loRaNodes[152].**.initialZ = 0.256884024557262m
**.loRaNodes[153].**.initialY = 13710.450501874671m
**.loRaNodes[153].**.initialX = 8361.419804947782m
**.loRaNodes[153].**.initialZ = 0.0122795312094363m
**.loRaNodes[154].**.initialY = 11605.14615514839m
**.loRaNodes[154].**.initialX = 8601.586294000948m
**.loRaNodes[154].**.initialZ = 4.29313302810434m
**.loRaNodes[155].**.initialY = 11112.161889766146m
**.loRaNodes[155].**.initialX = 8348.164542957385m
**.loRaNodes[155].**.initialZ = 0.35571102651409797m
**.loRaNodes[156].**.initialY = 13863.360344285455m
**.loRaNodes[156].**.initialX = 9364.84238819351m
**.loRaNodes[156].**.initialZ = 0.0870681033716415m
**.loRaNodes[157].**.initialY = 12101.57283591614m
**.loRaNodes[157].**.initialX = 9675.900216304688m
**.loRaNodes[157].**.initialZ = 0.10597723647395099m
**.loRaNodes[158].**.initialY = 11981.2385008235m
**.loRaNodes[158].**.initialX = 10259.073705149736m
**.loRaNodes[158].**.initialZ = 0.8300840144626421m
**.loRaNodes[159].**.initialY = 11524.641827953685m
**.loRaNodes[159].**.initialX = 8494.086885296276m
**.loRaNodes[159].**.initialZ = 3.38948465975708m
**.loRaNodes[160].**.initialY = 13106.655797579504m
**.loRaNodes[160].**.initialX = 9728.645858739466m
**.loRaNodes[160].**.initialZ = 0.132393512066194m
**.loRaNodes[161].**.initialY = 11791.177387559539m
**.loRaNodes[161].**.initialX = 10260.381524715604m
**.loRaNodes[161].**.initialZ = 0.902043960325297m
**.loRaNodes[162].**.initialY = 14125.658478298037m
**.loRaNodes[162].**.initialX = 8045.802627245939m
**.loRaNodes[162].**.initialZ = 0.00973186775791705m
**.loRaNodes[163].**.initialY = 12208.755401536997m
**.loRaNodes[163].**.initialX = 9587.865503224084m
**.loRaNodes[163].**.initialZ = 0.10027969355484698m
**.loRaNodes[164].**.initialY = 14101.691492229904m
**.loRaNodes[164].**.initialX = 8273.013780239982m
**.loRaNodes[164].**.initialZ = 0.00888950625837963m
**.loRaNodes[165].**.initialY = 10597.289111329335m